resultados/_temp_alt4_1p10/LineSummary.csv
line,maxCurrentA,normAmps,maxLoadingPct,meanLoadingPct,overloadHours
rbt_1607347,91.27188039882809,124.95,73.04672300826579,25.171225283464512,0
sbt_7584,91.27189074309787,163.8,55.721545020206264,19.201128558275805,0
sbt_22840,91.27188600357479,163.8,55.72154212672453,19.201128517675187,0
rbt_630758,30.89513895745189,76.65,40.30676967704095,17.307115762128564,0
rbt_637576,24.550545578461357,61.95,39.629613524554244,14.496231104818419,0
rbt_632607,45.12013784430777,124.95,36.11055449724511,17.015658211088482,0
rbt_606147,25.28734947087949,76.65,32.99067119488518,12.290890680697672,0
rbt_1130761,28.00236988718508,90.3,31.010376397768635,14.601455272203232,0
rbt_637918,17.48260766004296,61.95,28.22051276843093,11.138206562443832,0
rbt_605836,23.756773671256642,90.3,26.308719458755974,12.403698593078799,0
rbt_637360,16.21397782074693,61.95,26.172684133570506,12.296923519949756,0
rbt_1607350,21.627025821920228,90.3,23.950194708660273,8.626859451813322,0
rbt_626476,14.008931653190052,61.95,22.613287575770865,10.641025016047289,0
rbt_606126,13.442884304934386,61.95,21.699571113695537,7.7234861946828,0
rbt_1633671,13.189568191800992,61.95,21.29066697627279,10.042061078645805,0
smt_29422,34.50376703003343,163.8,21.064570836406244,19.976561954293683,0
smt_17184,34.411026884946445,163.8,21.007952921212723,19.915806428660087,0
smt_19119,34.40950653242988,163.8,21.007024745073185,19.9146243990504,0
rbt_3405844,18.376014212248023,90.3,20.34996036793801,7.026802944685958,0
smt_24512,31.713401517616752,163.8,19.361050987556013,19.054251910476843,0
smt_19115,31.71334814766872,163.8,19.361018405170157,19.054219774044654,0
smt_29473,31.71186031756174,163.8,19.360110083981525,19.053323889826412,0
smt_29474,31.709967857306985,163.8,19.35895473584065,19.052184362011783,0
smt_6092,31.70807788905578,163.8,19.35780090906946,19.05104633590456,0
smt_19063,31.70639101015581,163.8,19.356771068471186,19.050030599064453,0
smt_6227,31.70444557810166,163.8,19.355583381014444,19.048859178233545,0
smt_6144,31.70248461774598,163.8,19.354386213520133,19.047678408400085,0
smt_6176,31.700456978991234,163.8,19.353148338822486,19.04645749024213,0
smt_6719,31.698546167950134,163.8,19.351981787515342,19.045306919683373,0
smt_6062,31.696502221436987,163.8,19.350733956921236,19.044076184570205,0
smt_6066,31.694690882458506,163.8,19.349628133369052,19.0429855120758,0
smt_19014,31.69305188246535,163.8,19.34862752287262,19.04199861201766,0
smt_19011,31.69109206851365,163.8,19.34743105525864,19.040818539581117,0
smt_29475,31.689113819623138,163.8,19.346223333103257,19.039627367969473,0
smt_6594,31.687389558795918,163.8,19.345170670815577,19.03858913227798,0
smt_29476,31.685390951375364,163.8,19.34395051976518,19.0373857043426,0
smt_19061,31.683410634034587,163.8,19.34274153481965,19.03619329068071,0
smt_6474,31.681790206906456,163.8,19.341752263068653,19.035217579524495,0
smt_37840,31.680132866733814,163.8,19.34074045588145,19.03421964262626,0
rbt_606143,14.774526867928996,76.65,19.275312286926283,6.819478253831337,0
smt_13371,31.51624040854915,163.8,19.240684010103266,18.98788795539272,0
smt_21221,31.514465831546094,163.8,19.23960062975952,18.98680896668792,0
smt_13441,31.512709837582715,163.8,19.23852859437284,18.98574127742725,0
smt_26478,31.511956408255323,163.8,19.2380686253085,18.955771959539373,0
smt_857,31.511510046068587,163.8,19.23779612092099,18.98501177376426,0
smt_21217,31.510274013171856,163.8,19.237041522082936,18.98426023462953,0
smt_30311,31.510223056704945,163.8,19.23701041312878,18.954722801950727,0
smt_26396,31.508864919439024,163.8,19.236181269498793,18.983403470027277,0
smt_39969,31.508792363725394,163.8,19.236136974191325,18.98335935545932,0
smt_14452,31.508121528513882,163.8,19.235727428885152,18.95345079797566,0
smt_13847,31.507623757704245,163.8,19.23542353950198,18.982648814085092,0
smt_22508,31.506419190529574,163.8,19.234688150506454,18.952420416091556,0
smt_14513,31.506005968328765,163.8,19.234435878100587,18.981665158450195,0
smt_13787,31.504666588722564,163.8,19.23361818603331,18.980850783098088,0
smt_14288,31.50450550672038,163.8,19.233519845372637,18.973124382143922,0
smt_14113,31.504392622934844,163.8,19.233450929752653,18.9511937885318,0
smt_20815,31.502764224701703,163.8,19.23245679163718,18.972065665799224,0
smt_21165,31.502718620810473,163.8,19.232428950433743,18.979666371773657,0
smt_14544,31.502096615137706,163.8,19.23204921559078,18.949804078952983,0
smt_26394,31.500751469420695,163.8,19.231228003309337,18.978470297054763,0
smt_22453,31.500006310072944,163.8,19.230773083072613,18.948538878272565,0
smt_14041,31.49893959448982,163.8,19.230121852557886,18.977368634599845,0
smt_14754,31.49871477000003,163.8,19.229984597069617,18.94945219553298,0
smt_21157,31.49849869901021,163.8,19.229852685598416,18.969472187138525,0
smt_26474,31.497915739758298,163.8,19.229496788619226,18.94727351962697,0
smt_26393,31.4974601374908,163.8,19.229218643156777,18.97646909045725,0
smt_15145,31.49674634639448,163.8,19.2287828732567,18.96840674168087,0
smt_14780,31.496660495203376,163.8,19.22873046105212,18.948208857586682,0
smt_21229,31.496177108822582,163.8,19.22843535337154,18.94622118122773,0
smt_13284,31.49606127450501,163.8,19.228364636449943,18.975618549603,0
smt_26472,31.494598187073585,163.8,19.22747142067984,18.94696065990413,0
smt_15288,31.494566187978997,163.8,19.22745188521306,18.967081187290393,0
smt_21164,31.494267859823236,163.8,19.22726975569184,18.974528112685807,0
smt_14729,31.494207843780288,163.8,19.22723311586098,18.94502924940165,0
smt_26388,31.492744789821383,163.8,19.226339920525874,18.965973762771327,0
smt_15243,31.492533719877912,163.8,19.226211062196526,18.94571115787861,0
smt_13919,31.492370543580346,163.8,19.22611144296724,18.973374501779727,0
smt_15568,31.49104272471017,163.8,19.225300808736364,18.945031037606824,0
smt_20997,31.490936261932784,163.8,19.225235813145776,18.96487416405572,0
smt_20813,31.490380776701834,163.8,19.224896689073155,18.97216467943723,0
smt_15581,31.489574261217495,163.8,19.224404310877592,18.94414197937039,0
smt_15035,31.489224070684994,163.8,19.224190519343708,18.963833139295197,0
smt_20814,31.489051118119683,163.8,19.224084931696996,18.97135621787696,0
smt_23196,31.488060187587443,163.8,19.2234799680021,18.94322530855344,0
smt_21162,31.48719342351185,163.8,19.22295080800479,18.97022669919301,0
smt_15622,31.48666271079625,163.8,19.222626807567917,18.94237923059314,0
smt_20816,31.486640209713297,163.8,19.22261307064304,18.96226213387465,0
smt_856,31.485360241192335,163.8,19.22183164907957,18.94159067411245,0
smt_14255,31.48479111587511,163.8,19.221484197725953,18.96113787268802,0
smt_15189,31.48344259624869,163.8,19.22066092567075,18.96031796428421,0
smt_16038,31.483019308198624,163.8,19.220402508057767,18.940173401469348,0
smt_14349,31.481982580868703,163.8,19.219769585389926,18.959430266152932,0
smt_14630,31.4801742949198,163.8,19.218665625714163,18.958330817808122,0
smt_23147,31.479157618343603,163.8,19.218044944043715,18.93793892403837,0
smt_20817,31.47878164511665,163.8,19.217815412159126,18.957484079082274,0
smt_14608,31.477311637097237,163.8,19.21691797136583,18.956590306475853,0
smt_20862,31.474951441332177,163.8,19.215477070410365,18.955155295750686,0
smt_14261,31.473780899161046,163.8,19.21476245370027,18.95444360069443,0
smt_14274,31.47175737236506,163.8,19.21352708935596,18.953213287613767,0
smt_26385,31.47014127252847,163.8,19.21254045941909,18.952230692336254,0
smt_13717,31.469509701959915,163.8,19.212154885201414,18.932815257943815,0
smt_14298,31.46859148581724,163.8,19.211594313685737,18.951288416129547,0
smt_20807,31.46815406672266,163.8,19.21132726906145,18.931994473509658,0
smt_14732,31.467008407768745,163.8,19.21062784357066,18.950325899070283,0
smt_23095,31.46645339560315,163.8,19.21028900830473,18.930964784747594,0
smt_20808,31.46564738922492,163.8,19.209796940918753,18.930476780540687,0
smt_21153,31.46538051287684,163.8,19.209634012745322,18.94933613366128,0
smt_26469,31.46405031765571,163.8,19.208821927750737,18.929509819509747,0
smt_36207,31.463776543196357,163.8,19.208654788276164,18.948360915286543,0
smt_13955,31.462526664370312,163.8,19.20789173648981,18.92858731158007,0
smt_14872,31.46186753061313,163.8,19.20748933492865,18.947200230486363,0
smt_14437,31.460785075585044,163.8,19.206828495473165,18.92753285457385,0
smt_15028,31.459104119427195,163.8,19.20580227071257,18.932411038844695,0
smt_13280,31.459067890528594,163.8,19.205780152947856,18.92649317468158,0
smt_14970,31.457735507515757,163.8,19.204966732305103,18.92570296526449,0
smt_21226,31.457366631696527,163.8,19.204741533392262,18.92546313911914,0
smt_13747,31.45613740282533,163.8,19.20399108841595,18.924731044210045,0
smt_13930,31.455581550554086,163.8,19.20365174026501,18.924382354750126,0
smt_20865,31.454593094232624,163.8,19.203048287077305,18.923791841072422,0
smt_21225,31.453251373612613,163.8,19.202229165819666,18.922971542745575,0
smt_14193,31.45292345567992,163.8,19.20202897172156,18.92277641670229,0
smt_14225,31.45139230001144,163.8,19.201094200251184,18.92184521414829,0
smt_13546,31.450907703181667,163.8,19.20079835359076,18.921552564298494,0
smt_21108,31.449637298767808,163.8,19.200022770920516,18.920777876343454,0
smt_20866,31.44798917844114,163.8,19.199016592454907,18.919775540878714,0
smt_36206,31.44648727055593,163.8,19.19809967677407,18.918862127697256,0
smt_13702,31.444777703740673,163.8,19.197055985189664,18.91782242337966,0
smt_20867,31.44333857840199,163.8,19.196177398291812,18.916947193339656,0
smt_13866,31.44188185920329,163.8,19.195288070331674,18.916061263765812,0
smt_21107,31.440129018093554,163.8,19.194217959764075,18.914995242880558,0
smt_26355,31.437957634151847,163.8,19.19289232854203,18.913674678656637,0
smt_13752,31.436680963079038,163.8,19.19211292007267,18.91280841459241,0
smt_14823,31.436644344034065,163.8,19.192090564123358,18.912786242327115,0
smt_27620,31.436573586608535,163.8,19.192047366671876,18.911694305777345,0
smt_20868,31.436342109219858,163.8,19.191906049584773,18.912692170114244,0
smt_23041,31.434869233924992,163.8,19.191006858318065,18.911711429214808,0
smt_23009,31.434840567684176,163.8,19.190989357560547,18.911778982897467,0
smt_20869,31.434635032503298,163.8,19.19086387820714,18.91051531608147,0
smt_14797,31.433115942211863,163.8,19.189936472656814,18.910649828719986,0
smt_13891,31.433036332396114,163.8,19.189887870815696,18.9095430192898,0
smt_21104,31.431361592101336,163.8,19.188865440843305,18.908524476926022,0
smt_26430,31.430744716201353,163.8,19.18848883772976,18.90990657270668,0
smt_13932,31.42910450577642,163.8,19.18748748826399,18.907151764477057,0
smt_26429,31.429000031271464,163.8,19.187423706514934,18.908850153955004,0
smt_20810,31.427245108518033,163.8,19.186352325102582,18.90778753790894,0
smt_14054,31.427064178876115,163.8,19.186241867445737,18.905910881407028,0
smt_26425,31.425477690982227,163.8,19.185273315617966,18.906717358000453,0
smt_26351,31.425032003567715,163.8,19.185001223179313,18.904674956688872,0
smt_14845,31.42338151025295,163.8,19.183993596003017,18.905448112710584,0
smt_14864,31.4230205790524,163.8,19.183773247284737,18.903451652880513,0
smt_21052,31.42135622444947,163.8,19.18275715778356,18.90243942990819,0
smt_21220,31.421274833679053,163.8,19.182707468668532,18.904172514674553,0
smt_26348,31.41971322975346,163.8,19.181754108518597,18.90144019796735,0
smt_23225,31.419242641001034,163.8,19.181466813797943,18.902942019207476,0
smt_14369,31.41821339932691,163.8,19.18083846112754,18.90052803570393,0
smt_20870,31.416567476004627,163.8,19.179833623934446,18.899527023575242,0
smt_21053,31.415154182601228,163.8,19.178970807448856,18.898667491894887,0
smt_14674,31.41469120508164,163.8,19.178688159390497,18.900588663797198,0
smt_26347,31.41338665687627,163.8,19.17789173191469,18.89759252501308,0
smt_15154,31.412677960317406,163.8,19.177459072232846,18.899369646339498,0
smt_14536,31.411686347433577,163.8,19.176853691961888,18.896558437977546,0
smt_20812,31.41099914488256,163.8,19.176434154384957,18.898353127260446,0
smt_14549,31.4096332510989,163.8,19.17560027539615,18.89530979515565,0
smt_26427,31.409220911243725,163.8,19.175348541662835,18.897276412432017,0
smt_21056,31.408127104753603,163.8,19.174680772132845,18.89439379434031,0
smt_23277,31.4074485612129,163.8,19.174266520886995,18.89620326186113,0
smt_15181,31.40677475137132,163.8,19.17385515956735,18.89357132695658,0
smt_14301,31.405768697568217,163.8,19.17324096310636,18.895186113042474,0
smt_21055,31.4054245674448,163.8,19.17303087145592,18.892750179262748,0
smt_20871,31.403988281629285,163.8,19.172154018088694,18.9001382450681,0
smt_21222,31.403984698119473,163.8,19.17215183035377,18.8941059123054,0
smt_14721,31.402642431067274,163.8,19.171332375498945,18.89931970747477,0
smt_14748,31.400997280490326,163.8,19.170328010067355,18.89831913803615,0
smt_26346,31.399378249769153,163.8,19.169339590823657,18.897334455071654,0
smt_14761,31.397588763531417,163.8,19.16824710838304,18.896246102942214,0
smt_14786,31.39581485996468,163.8,19.167164139172574,18.895167228742135,0
smt_21100,31.394068811202118,163.8,19.16609817533707,18.894105296246654,0
smt_21054,31.39233467696291,163.8,19.16503948532534,18.893050610680387,0
smt_21101,31.271810146335984,163.8,19.0914591857973,18.873020938006317,0
smt_14960,31.269392422841634,163.8,19.08998316412798,18.871549056522863,0
smt_21103,31.267927265791275,163.8,19.089088684854257,18.8706570864273,0
smt_14563,31.266170241846034,163.8,19.088016020663023,18.869587431403414,0
smt_26349,31.264368902594544,163.8,19.086916301950268,18.868490798017454,0
smt_26350,31.262925382089612,163.8,19.086035031800737,18.86761200043862,0
smt_17100,31.261008789038616,163.8,19.084864950573024,18.866445202316985,0
smt_14503,31.25880395456585,163.8,19.08351889778135,18.860951354606755,0
smt_15080,31.258652075518956,163.8,19.083426175530498,18.865010464634413,0
smt_26354,31.25701444122623,163.8,19.08242639879501,18.859861928175935,0
smt_20875,31.256269979890384,163.8,19.08197190469498,18.863560275021175,0
smt_27622,31.255339846167534,163.8,19.081404057489333,18.859087737668244,0
smt_14517,31.2550062619325,163.8,19.081200404110195,18.862790939674657,0
smt_21109,31.253945754340734,163.8,19.08055296357798,18.858239039709805,0
smt_14778,31.252716366765714,163.8,19.079802421712888,18.86139688104631,0
smt_21110,31.25261099463266,163.8,19.079738091961328,18.857426462085595,0
smt_14066,31.250862252717795,163.8,19.078670483954696,18.856361859567922,0
smt_14909,31.25068890382188,163.8,19.07856465434791,18.860162588016276,0
smt_21111,31.24882586201366,163.8,19.077427266186607,18.855122141668453,0
smt_14146,31.246858693485237,163.8,19.076226308599047,18.85392456500985,0
smt_26356,31.24496568331244,163.8,19.075070624732867,18.852772134621926,0
smt_14607,31.243052637516538,163.8,19.073902709106555,18.851607506923397,0
smt_15188,31.24138240750672,163.8,19.07288303266588,18.850590701079984,0
smt_14159,31.23998507255331,163.8,19.07202995882375,18.84974002877981,0
smt_14181,31.238562702541877,163.8,19.071161601063416,18.848874115620237,0
smt_14620,31.236827619816058,163.8,19.070102332000033,18.847817828624894,0
smt_20876,31.234844152191712,163.8,19.068891423804462,18.846610329394,0
smt_26384,31.232786018132213,163.8,19.067634931704646,18.845357374573062,0
smt_14740,31.230320461356285,163.8,19.06612970778772,18.843856388170344,0
smt_36560,31.08106045832819,163.8,18.975006384815742,18.789668489262407,0
smt_26391,31.080517222191986,163.8,18.974674738822944,18.802183854554674,0
smt_14427,31.07923399717717,163.8,18.97389132916799,18.788556176890847,0
smt_21161,31.078826111347837,163.8,18.973642314620168,18.80115390130702,0
smt_36562,31.07787245452199,163.8,18.97306010654578,18.787726998896908,0
smt_36563,31.07782917827017,163.8,18.973033686367625,18.78770064388632,0
smt_36561,31.07780072383162,163.8,18.973016314915515,18.787683315216388,0
smt_13545,31.077491585998587,163.8,18.97282758607972,18.783969253215037,0
smt_14907,31.076908426543582,163.8,18.972471566876422,18.799985956160896,0
smt_20926,31.076203855770565,163.8,18.972041425989357,18.786710825902905,0
smt_21154,31.075839309248508,163.8,18.971818870115083,18.78296302360126,0
smt_26390,31.07519125483235,163.8,18.97142323249838,18.798940131937254,0
smt_14247,31.07417027350098,163.8,18.97079992277227,18.785472379367896,0
smt_16842,31.07383780687371,163.8,18.97059695169335,18.781744117901646,0
smt_14065,31.073384280971204,163.8,18.970320073852992,18.797839615246016,0
smt_14040,31.07197058581134,163.8,18.969457012094836,18.784132776157385,0
smt_27624,31.071456304909532,163.8,18.969143043290313,18.796665404150037,0
smt_16817,31.071307299195443,163.8,18.96905207521089,18.780203051775807,0
smt_23120,31.07037270239074,163.8,18.96848150329105,18.78917947960386,0
smt_23173,31.069777163062255,163.8,18.968117926167434,18.79564274316111,0
smt_14587,31.06962366227484,163.8,18.968024213843,18.779177726427378,0
smt_15289,31.068508012595082,163.8,18.967343109032406,18.788043863838023,0
smt_14588,31.06749712565304,163.8,18.966725961937144,18.777882678590725,0
smt_14163,31.06716377676509,163.8,18.966522452237538,18.787225210476272,0
smt_20927,31.06575204051425,163.8,18.965660586394538,18.786365449042975,0
smt_16855,31.065298578776382,163.8,18.965383747726726,18.776543778055668,0
smt_26392,31.06442342811163,163.8,18.964849467711616,18.785556311415117,0
smt_26387,31.063199472304458,163.8,18.96410224194411,18.775265437154296,0
smt_14735,31.06271596699971,163.8,18.963807061660383,18.784516451763185,0
smt_27623,31.061691109371083,163.8,18.96318138545243,18.774346855492826,0
smt_26389,31.06027478845368,163.8,18.96231672066769,18.773484327205164,0
smt_3613,30.942248950275346,163.8,18.89026187440497,18.753023223004913,0
smt_14937,30.939753866407177,163.8,18.888738624180203,18.75150766629886,0
...
rbt_1627323,13.801896160481219,76.65,18.006387684907,8.473728058667891,0
sbt_34378,22.642614459652247,128.1,17.675733379900272,8.674546452646455,0
sbt_34379,22.57190980006453,128.1,17.620538485608535,8.550001421324863,0
rbt_637397,10.801466148100998,61.95,17.435780707184822,8.197523045111723,0
rbt_635862,10.37267846981085,61.95,16.743629491220098,5.758219299778339,0
rbt_3435739,12.816790025126016,76.65,16.72118724739206,8.05935964448811,0
rbt_605816,9.828659287145049,61.95,15.865471004269653,6.020142335773717,0
sbt_24791,25.28737088341133,163.8,15.437955362277977,5.751507120173215,0
sbt_3174,25.287361960750722,163.8,15.43794991498823,5.751508790619403,0
smt_37838,31.760104361676852,216.3,14.68335846587002,14.46976772906005,0
smt_37842,31.758971807555902,216.3,14.682834862485391,14.469249845844944,0
smt_37843,31.75826711748028,216.3,14.682509069570171,14.468927612207024,0
smt_38001,31.756904176419283,216.3,14.681878953499435,14.468304380864486,0
smt_38002,31.756849404318686,216.3,14.681853631215294,14.468279335027331,0
smt_38000,31.756822474692804,216.3,14.681841181087748,14.468267020929188,0
smt_37845,31.755571741102884,216.3,14.681262940870496,14.467695098669617,0
smt_37846,31.754095726974224,216.3,14.680580548762933,14.467020162875764,0
smt_37831,31.753242312202925,216.3,14.680185997319892,14.456292627374765,0
smt_37847,31.752711812392853,216.3,14.679940736196418,14.466387341813382,0
smt_37858,31.752543123096885,216.3,14.679862747617605,14.45597274336746,0
smt_37848,31.75169843670303,216.3,14.67947223148545,14.465923956930558,0
smt_37859,31.751074320451274,216.3,14.67918368952902,14.455300756156555,0
smt_37849,31.750257372702823,216.3,14.678805997551002,14.465265003975723,0
smt_37860,31.750012584064386,216.3,14.678692826659448,14.4548150048866,0
smt_37850,31.74881174976006,216.3,14.678137655922358,14.464603966843464,0
smt_37861,31.748588292800868,216.3,14.678034347110897,14.454163382921019,0
smt_37851,31.747416820911834,216.3,14.67749275123062,14.463966110906783,0
smt_37862,31.747238330399156,216.3,14.677410231344961,14.453545767354855,0
smt_37863,31.74612375203811,216.3,14.676894938528944,14.45303584168665,0
smt_37852,31.746016999215776,216.3,14.67684558447331,14.463326018066939,0
smt_37864,31.745449196704627,216.3,14.676583077533344,14.452727229149124,0
smt_37923,31.74477410169335,216.3,14.676270967033448,14.452418369819808,0
smt_37853,31.74467198143958,216.3,14.676223754710854,14.462710985637377,0
smt_37924,31.743349703189125,216.3,14.675612437905281,14.451766700823589,0
smt_37854,31.743244806208246,216.3,14.675563941843848,14.462058385747731,0
smt_37925,31.74190553935147,216.3,14.67494477085135,14.451105989650607,0
smt_37855,31.74185520953692,216.3,14.674921502328672,14.46142296969551,0
smt_37856,31.740346070694244,216.3,14.674223795975147,14.460732891472679,0
smt_37932,31.72267808131458,216.3,14.666055516095506,14.440737252534035,0
smt_37933,31.72131558492572,216.3,14.665425605605972,14.440113862738613,0
smt_37934,31.719954343830608,216.3,14.664796275464912,14.43949104782554,0
smt_37935,31.718601535571995,216.3,14.664170843999996,14.438872091719789,0
smt_37936,31.71736431267371,216.3,14.663598850057191,14.438306020338558,0
smt_37937,31.7159972796584,216.3,14.662966842190661,14.437680556900128,0
smt_37938,31.71463167273862,216.3,14.662335493637826,14.437055746487305,0
smt_37939,31.71324304866264,216.3,14.66169350377376,14.436420405425865,0
smt_37940,31.711871232938012,216.3,14.661059284760986,14.435792755290256,0
smt_37941,31.710528539055453,216.3,14.66043852938301,14.435178429870012,0
smt_37942,31.709214290342647,216.3,14.659830924800113,14.434577119475696,0
smt_37943,31.7078884816165,216.3,14.659217975782015,14.43397052048165,0
smt_37944,31.70655213622205,216.3,14.658600155442464,14.433359101120386,0
smt_37945,31.705416457903624,216.3,14.658075107676199,14.432839493552947,0
smt_37873,31.704446940289948,216.3,14.657626879468305,14.432395909833287,0
smt_37874,31.703087571238417,216.3,14.656998414812028,14.431773957705389,0
smt_37875,31.7016240901931,216.3,14.656321817010218,14.431104371842176,0
smt_37876,31.700118226797542,216.3,14.65562562496419,14.430415395321324,0
smt_37877,31.698619242014654,216.3,14.654932613044222,14.429729566625689,0
smt_37878,31.697127993369648,216.3,14.654243177702103,14.429047278036649,0
smt_37879,31.69569034217543,216.3,14.653578521579021,14.428389512337551,0
smt_37880,31.69416289457137,216.3,14.652872350703362,14.427690662936513,0
smt_37881,31.692778385558803,216.3,14.65223226331891,14.427057212394239,0
smt_37882,31.691306470239443,216.3,14.651551766176349,14.426383771690888,0
smt_37883,31.68985702049917,216.3,14.65088165533942,14.425720610136283,0
smt_37884,31.688358827074133,216.3,14.65018900928069,14.42503514767054,0
smt_37885,31.68690518420104,216.3,14.64951695987103,14.424370068807683,0
smt_37886,31.685457236513148,216.3,14.648847543464239,14.423707596207429,0
smt_37887,31.684024745873725,216.3,14.648185273173242,14.423052196168888,0
smt_37888,31.682538873906154,216.3,14.647498323581207,14.422372373392614,0
smt_37889,31.681579160245352,216.3,14.647054627945147,14.421933281276155,0
smt_37890,31.680577087949256,216.3,14.646591349028782,14.421474809291167,0
smt_37841,31.678795913226537,216.3,14.645767874815782,14.413653790854168,0
smt_37891,31.678584239880127,216.3,14.645670013814204,14.420563034576475,0
smt_37837,31.67794635085001,216.3,14.645375104415168,14.41326640526674,0
smt_37892,31.677110390407126,216.3,14.644988622472088,14.419888714552854,0
smt_37893,31.675725155156332,216.3,14.64434819933256,14.419254938110235,0
smt_37894,31.67428977569262,216.3,14.643684593477863,14.418598220126158,0
smt_37895,31.672915444838303,216.3,14.643049211668194,14.417969433737662,0
smt_37896,31.671463202592314,216.3,14.642377809797647,14.417305001699175,0
smt_37897,31.669988212560487,216.3,14.641695891151404,14.416630162683921,0
smt_37903,31.668850147971213,216.3,14.641169740162372,14.406793988562976,0
smt_37898,31.668613871974287,216.3,14.641060504842482,14.416001373407807,0
smt_37904,31.667786041862524,216.3,14.640677781720997,14.406307308280532,0
smt_37905,31.666381702702488,216.3,14.640028526445903,14.405665019242948,0
smt_37906,31.66498239001757,216.3,14.639381595015058,14.405025029704069,0
smt_40683,31.66348024104117,216.3,14.638687120222455,14.404338007558485,0
smt_37908,31.662031465958492,216.3,14.6380173212938,14.403675397069662,0
smt_37909,31.660473824562363,216.3,14.637297191198503,14.402962996306668,0
smt_37910,31.65898516624623,216.3,14.636608953419431,14.402282146144172,0
smt_37911,31.657467554507807,216.3,14.635907329869536,14.40158805492563,0
smt_40685,31.657379149398025,216.3,14.635866458343976,14.401547622026998,0
smt_37912,31.655971534706467,216.3,14.635215688722361,14.400903839097959,0
smt_37913,31.654480587082887,216.3,14.634526392548722,14.40022194379492,0
smt_37914,31.652942147255477,216.3,14.63381513973901,14.399518328302333,0
smt_37915,31.651481134106785,216.3,14.633139682897264,14.398850124991226,0
smt_37916,31.650365812060826,216.3,14.632624046260206,14.398340026033184,0
smt_37917,31.648865270559007,216.3,14.631930314636618,14.397653745308807,0
smt_37918,31.64734502701494,216.3,14.6312274743481,14.396958454387942,0
smt_37919,31.645870480949867,216.3,14.630545760956942,14.396284064051478,0
smt_37920,31.64433005180926,216.3,14.629833588446258,14.395579542456076,0
smt_37993,31.642761838171545,216.3,14.629108570583238,14.394862314245609,0
smt_37987,31.6421160708571,216.3,14.628810018889087,14.394566970345274,0
smt_37986,31.64082497706903,216.3,14.628213119310693,14.393976484616589,0
smt_37948,31.614086083755915,216.3,14.61585117140819,14.388857255624856,0
smt_37947,31.612340741561653,216.3,14.615044263320225,14.388058278541669,0
smt_37985,31.61064349807768,216.3,14.614259592268922,14.387281320949562,0
smt_37984,31.608789375151503,216.3,14.613402392580443,14.386432548869566,0
smt_37983,31.606906006194414,216.3,14.612531671842078,14.385570389938735,0
smt_37963,31.60499303761314,216.3,14.611647266580277,14.384694682341696,0
smt_37959,31.57846981496772,216.3,14.599385027724326,14.38183774136287,0
smt_37958,31.57656089902815,216.3,14.598502496083285,14.380963147869203,0
smt_37957,31.57461667314822,216.3,14.597603639920582,14.380072378090475,0
smt_37956,31.572710592577355,216.3,14.596722419129613,14.379199086371324,0
smt_37955,31.57079535010389,216.3,14.595836962600039,14.378321598381044,0
smt_37954,31.569177437605138,216.3,14.595088967917308,14.377580336219085,0
smt_37962,31.569170409584487,216.3,14.595085718716822,14.371387593981906,0
smt_37960,31.567451779023084,216.3,14.594291159973686,14.37060067864138,0
smt_37953,31.565352891295927,216.3,14.593320800414206,14.37681869084483,0
smt_37952,31.56350182180214,216.3,14.592465012391187,14.375970556696293,0
smt_37951,31.561582032262972,216.3,14.59157745365833,14.37509093729224,0
smt_37981,31.560023765271147,216.3,14.590857034337098,14.37437696323287,0
smt_37980,31.549053167818755,216.3,14.585785098390547,14.370922537589507,0
smt_37979,31.547852965346223,216.3,14.585230219762469,14.370372620362275,0
smt_37978,31.54621989972031,216.3,14.584475219473097,14.369624371756714,0
smt_37977,31.54437603295784,216.3,14.583622761422948,14.368779538157455,0
smt_37976,31.54271662303677,216.3,14.58285558161663,14.368019221147142,0
smt_37975,31.540974705901228,216.3,14.582050257004727,14.36722110162143,0
smt_37990,31.539210212685152,216.3,14.58123449500007,14.366412639254884,0
smt_37974,31.53758131389187,216.3,14.580481421124302,14.365666305101293,0
smt_37991,31.535821810888468,216.3,14.579667966199015,14.364860131355174,0
smt_37973,31.534790596728616,216.3,14.579191214391408,14.364387647443406,0
smt_37989,31.529399479246095,216.3,14.576698788370823,14.3604691455028,0
smt_37969,31.5269745247284,216.3,14.575577681335366,14.361740248374701,0
smt_37968,31.525637667507556,216.3,14.5749596243678,14.361127473727953,0
smt_37972,31.52508635162861,216.3,14.574704739541659,14.358492472343679,0
smt_37967,31.523901545651658,216.3,14.574156979034514,14.360331689365934,0
smt_37971,31.523337657076585,216.3,14.573896281588805,14.3576910611721,0
smt_37966,31.522134711549572,216.3,14.573340134789445,14.359521828641219,0
smt_37970,31.522113653807715,216.3,14.573330399356315,14.357130112055671,0
smt_37996,31.520413588744056,216.3,14.572544423829893,14.358732921724007,0
smt_37995,31.51900719730282,216.3,14.571894219742404,14.358088278729424,0
smt_37994,31.51897849011994,216.3,14.571880947813195,14.35807512006212,0
smt_37965,31.51896485730621,216.3,14.571874645079152,14.358068870468594,0
smt_37964,31.51283647596445,216.3,14.569041366603997,14.355259828102065,0
rbt_609688,10.767780657819584,76.65,14.04798520263481,5.153446657511496,0
rbt_1638954,7.8678670986026535,61.95,12.700350441650771,5.969883676339124,0
rbt_1607265,11.074540693512574,90.3,12.264164666126883,5.773658601019008,0
rbt_606139,9.253259199879833,76.65,12.072092889601869,4.325741574237997,0
smt_34714,34.45678095903613,286.65,12.020506177929926,11.400794784644207,0
smt_34721,34.45675212241758,286.65,12.02049611805951,11.400781964463505,0
smt_34712,34.45673406582964,286.65,12.020489818883533,11.400773936824857,0
smt_34720,34.45620480400882,286.65,12.02030518193226,11.400538645214885,0
smt_34711,34.455467147494424,286.65,12.0200478449309,11.400210711616147,0
smt_34719,34.454667477620944,286.65,12.019768874104638,11.399855213379405,0
smt_34710,34.453966052875025,286.65,12.01952417682715,11.399543394106933,0
smt_34718,34.45326228898645,286.65,12.019278663522224,11.399230538309654,0
smt_34709,34.45258934265829,286.65,12.019043901154124,11.398931385373237,0
smt_34708,34.451901140115226,286.65,12.018803816541157,11.39862545359968,0
smt_34707,34.450665587525364,286.65,12.018372784763777,11.398076212103481,0
smt_34706,34.449708022033604,286.65,12.018038730868168,11.397650551575865,0
smt_34717,34.44868012861695,286.65,12.017680142549086,11.3971936353322,0
smt_34705,34.44780701106619,286.65,12.017375548950355,11.396805525174628,0
smt_34716,34.44694456613612,286.65,12.017074678575309,11.396422164095208,0
smt_34704,34.44622071007406,286.65,12.016822155965135,11.396100410313897,0
smt_34703,34.445500688308655,286.65,12.016570970978076,11.395780364344176,0
smt_34702,34.44434851548411,286.65,12.016169026856485,11.395268236654452,0
smt_34715,34.4433899608531,286.65,12.015834627892238,11.394842176822117,0
smt_34701,34.44269009468942,286.65,12.015590474337841,11.394531103059663,0
smt_34700,34.44198342281849,286.65,12.015343946561483,11.394217007705576,0
smt_34713,34.44115695910105,286.65,12.015055628502026,11.393849672427068,0
rbt_623004,6.999313196489737,61.95,11.298326386585531,4.443560244287697,0
sbt_9361,23.75677372238233,216.3,10.983251836515178,5.178243067902765,0
smt_24122,35.29070231368825,327.6,10.77249765375099,10.098129170673909,0
smt_18806,35.29068074911599,327.6,10.772491071158727,10.098120545503727,0
smt_10381,35.29052776424766,327.6,10.772444372480972,10.098059344342461,0
smt_18545,35.2900576872295,327.6,10.772300881327686,10.097871292708042,0
smt_23134,35.28912705270237,327.6,10.772016804854202,10.097499002800504,0
smt_4527,35.28824851205916,327.6,10.771748630054688,10.097147558817047,0
smt_4627,35.28726849886555,327.6,10.771449480728188,10.09675552980348,0
smt_4591,35.28666557353851,327.6,10.771265437588067,10.096514348901948,0
smt_4693,35.28591169533561,327.6,10.771035316036508,10.096212788178736,0
smt_4863,35.28520122635224,327.6,10.770818445162467,10.095928595819993,0
smt_4387,35.28442369891496,327.6,10.770581104674896,10.095617584214404,0
smt_31415,35.283496765847815,327.6,10.770298158073203,10.095246816593983,0
smt_31414,35.28269329214519,327.6,10.770052897480216,10.094925437486067,0
smt_31413,35.282204653242395,327.6,10.769903740305981,10.094729990765494,0
smt_31412,35.282011801369734,327.6,10.769844872212984,10.094652854028258,0
smt_31411,35.28175516410241,327.6,10.769766533608792,10.094550204442585,0
smt_31416,35.281708395152464,327.6,10.769752257372547,10.09453149813132,0
smt_31417,35.281673644673084,327.6,10.769741649778108,10.094517598112988,0
smt_31408,35.271892315302445,327.6,10.766755896001968,10.094107871250037,0
smt_31407,35.27106044211454,327.6,10.766501966457428,10.086228699274479,0
smt_6830,35.27005684068562,327.6,10.766195616814901,10.085826791234128,0
smt_6842,35.2684177057406,327.6,10.76569527037259,10.085170391443494,0
smt_7020,35.26705450731651,327.6,10.765279153637518,10.08462450844834,0
smt_22791,35.26615573974235,327.6,10.765004804561157,10.084264611781837,0
smt_7012,35.26498748134422,327.6,10.764648193328515,10.083796811712197,0
smt_6826,35.26398651453019,327.6,10.764342647902987,10.083396008207451,0
smt_17964,35.26286928143342,327.6,10.764001612159161,10.082948659418243,0
smt_17962,35.2489897666732,327.6,10.75976488604188,10.081894262617029,0
smt_29388,35.24804895282956,327.6,10.759477702328926,10.081517604295525,0
smt_17961,35.246930433191935,327.6,10.759136273868112,10.08106981012773,0
smt_19163,35.246020204080864,327.6,10.75885842615411,10.080705411501368,0
smt_29389,35.245230863916284,327.6,10.758617479827924,10.080389414738473,0
smt_17795,35.24399216378903,327.6,10.758239366235966,10.079893535580096,0
smt_22739,35.242554285444136,327.6,10.757800453432276,10.07931793659871,0
smt_29420,35.2412651159595,327.6,10.75740693405357,10.078801881567426,0
smt_17794,35.24087407584966,327.6,10.757287568940676,10.078645350774996,0
smt_18202,35.24020488568079,327.6,10.757083298437358,10.078377481096922,0
smt_10747,35.23912169491296,327.6,10.756752654124835,10.077943899084698,0
smt_17776,35.237954179692736,327.6,10.756396269747476,10.077476574079979,0
smt_29390,35.23660944656894,327.6,10.755985789550957,10.076938327137272,0
sbt_11363,17.520320933548213,163.8,10.69616662609781,4.013675372652748,0
smt_12228,34.546550824255235,327.6,10.545345184449094,9.996925734871423,0
smt_24626,34.54573282726483,327.6,10.545095490618078,9.996606771142623,0
smt_6431,34.54482944336902,327.6,10.544819732408124,9.996254516795895,0
smt_6957,34.54399847657084,327.6,10.544566079539328,9.995930504015922,0
smt_24627,34.54299983596689,327.6,10.544261244190137,9.995541116743622,0
smt_24628,34.54219730724996,327.6,10.544016272054321,9.995228201041494,0
smt_24629,34.54133932539553,327.6,10.543754372831359,9.994893667612816,0
smt_24630,34.54018353770424,327.6,10.543401568285786,9.99444302422679,0
smt_6627,34.53931651947923,327.6,10.543136910707943,9.99410497755838,0
smt_6447,34.537911164377846,327.6,10.542707925634263,9.99355704491033,0
smt_6527,34.50944523520553,327.6,10.53401869206518,9.990492628128083,0
smt_24631,34.50858199155003,327.6,10.533755186675833,9.990156384412794,0
smt_1873,34.50764597393942,327.6,10.533469467014474,9.989791799149703,0
smt_24632,34.50674490777374,327.6,10.53319441629235,9.989440832404052,0
smt_24633,34.5057391855906,327.6,10.532887419288949,9.989049107475791,0
smt_24634,34.50471719773066,327.6,10.532575457182741,9.988651053036978,0
smt_6535,34.50209222936827,327.6,10.53177418478885,9.987628684114041,0
smt_6544,34.50110363159525,327.6,10.531472415016864,9.987243659753204,0
smt_19172,34.49988493398714,327.6,10.53110040719998,9.986769027066176,0
smt_19173,34.49906031212611,327.6,10.530848691125186,9.98644787551041,0
smt_6686,34.49830451731508,327.6,10.53061798452841,9.986153532153539,0
smt_19174,34.49606741588998,327.6,10.529935108635526,9.985282314472608,0
smt_24636,34.49473677492153,327.6,10.529528930073726,9.98476412241182,0
smt_24637,34.49360864402011,327.6,10.529184567771704,9.984324801674699,0
smt_24635,34.49236939272029,327.6,10.528806285934154,9.983842216212585,0
smt_24665,34.49110194551869,327.6,10.528419397288978,9.983348659690348,0
smt_6737,34.489876845564176,327.6,10.5280454351539,9.982871602160609,0
smt_22843,34.488690803442964,327.6,10.527683395434359,9.98240976182092,0
smt_19223,34.487780511964154,327.6,10.527405528682586,9.982055303134599,0
smt_6510,34.48673673418943,327.6,10.527086915198238,9.98164887178635,0
smt_24666,34.46875924033466,327.6,10.521599279711435,9.980355345611102,0
smt_6687,34.46785383438409,327.6,10.521322904268645,9.980003088239428,0
smt_22844,34.46710097663738,327.6,10.521093094211654,9.979710184784054,0
smt_19220,34.466096656109,327.6,10.520786525063796,9.979319453187415,0
smt_6683,34.46518255022606,327.6,10.520507493963999,9.978963824383717,0
smt_24667,34.463867985557506,327.6,10.52010622269765,9.978452406947282,0
smt_6502,34.46224759963076,327.6,10.519611599398887,9.977822026003041,0
smt_19218,34.461644853508936,327.6,10.519427610961213,9.977587542545583,0
smt_29393,34.46049134111986,327.6,10.519075500952338,9.977138802572044,0
smt_24668,34.457175567093664,327.6,10.5180633599187,9.97584893904603,0
smt_6394,34.440808036746944,327.6,10.51306716628417,9.969482765920787,0
smt_24450,34.43985221285577,327.6,10.512775400749623,9.969111045229326,0
smt_24451,34.43884202112735,327.6,10.512467039416162,9.96871818628958,0
smt_24452,34.43791852453456,327.6,10.512185141799316,9.968359047650374,0
smt_24453,34.436940770352145,327.6,10.511886682036673,9.96797881387217,0
smt_6993,34.43582501578602,327.6,10.511546097614781,9.967544920330031,0
smt_17113,34.43438323213543,327.6,10.511105992715333,9.966984251068387,0
smt_19165,34.43200651856257,327.6,10.510380500171724,9.966060038763738,0
smt_24454,34.43092297009433,327.6,10.51004974667104,9.965638698808343,0
smt_24455,34.4298865189047,327.6,10.509733369629028,9.965235678771142,0
smt_24456,34.42894772674726,327.6,10.509446803036404,9.964870638173538,0
smt_24457,34.42796906730552,327.6,10.509148066943077,9.964490100698603,0
smt_24458,34.427015644964015,327.6,10.5088570344823,9.9641193813325,0
smt_24459,34.42597866173604,327.6,10.50854049503542,9.96371617666754,0
smt_24505,34.42494798906455,327.6,10.508225881887835,9.963315431569683,0
smt_24506,34.4240922032919,327.6,10.507964653019505,9.962982690261205,0
smt_24507,34.42309470445564,327.6,10.50766016619525,9.962594854015624,0
smt_29445,34.42212795733802,327.6,10.507365066342496,9.96221897944372,0
smt_6650,34.421157787223635,327.6,10.507068921618936,9.961841779229898,0
smt_6653,34.42021459464306,327.6,10.506781011795805,9.961475072795421,0
smt_6140,34.41925295332751,327.6,10.506487470490692,9.96110119860669,0
smt_6420,34.418276873721766,327.6,10.50618952189309,9.960721716263798,0
smt_6426,34.41725341673692,327.6,10.505877111336055,9.960323820022715,0
smt_24508,34.416306172756364,327.6,10.505587964821844,9.959955558723339,0
smt_24509,34.415376971523656,327.6,10.505304325861921,9.959594316720285,0
smt_24510,34.414346092403825,327.6,10.504989649695917,9.959193551385775,0
smt_6389,34.41316987713455,327.6,10.504630609625929,9.958736292037374,0
smt_32671,34.41313218265364,327.6,10.504619103374127,9.9587216380408,0
smt_29446,34.41202941590518,327.6,10.50428248348754,9.958292939777438,0
smt_24511,34.41099438989335,327.6,10.503966541481486,9.957890581945078,0
rbt_606121,6.391267423000593,61.95,10.316815856336712,4.847640330838298,0
rbt_1605991,6.12264270028524,61.95,9.883200484721936,4.647269640984725,0
rbt_1607280,6.072733519495518,61.95,9.802636835343854,4.607491447840261,0
sbt_34393,12.204211696843593,128.1,9.527097343359559,6.263771738673193,0
rbt_635543,5.759731060975526,61.95,9.297386700525466,3.7027842975116383,0
rbt_606114,8.290265797812776,90.3,9.180803762804846,4.315658176431874,0
smt_37926,31.727421118345056,346.5,9.156542891297274,9.015875504496863,0
smt_37927,31.72662675880643,346.5,9.156313638905173,9.015648624636261,0
smt_37928,31.725823679330595,346.5,9.15608186993668,9.015419254387739,0
smt_37929,31.72501495456834,346.5,9.155848471736896,9.015188271820689,0
smt_37930,31.724214934440997,346.5,9.155617585697257,9.014959775568649,0
smt_37931,31.723481874525724,346.5,9.155406024394148,9.014750404144447,0
rbt_627337,8.072706068724344,90.3,8.939873830259518,4.204374465189313,0
rbt_1621994,7.910750317292043,90.3,8.760520838640137,4.116978748777724,0
rbt_626678,7.768447779188615,90.3,8.602932202866684,4.047467575461776,0
rbt_606150,5.259887080414837,61.95,8.490536045867373,3.988764031856128,0
rbt_1607272,7.570723678589337,90.3,8.383968636311558,3.94494376708094,0
rbt_623007,5.17905012790835,61.95,8.360048632620419,3.928124221402207,0
sbt_22748,17.941579804464073,216.3,8.294766437570075,3.904144916387603,0
sbt_7427,17.941571301928104,216.3,8.294762506670413,3.904140857321769,0
sbt_34383,10.604160189246437,128.1,8.27803293461861,4.877546960769856,0
sbt_34392,10.604156977628314,128.1,8.278030427500637,5.191051161339917,0
sbt_34384,10.59047056229558,128.1,8.267346262525823,3.99429355493708,0
rbt_1630759,6.273490858418092,76.65,8.184593422593727,3.850798438395652,0
rbt_606122,5.0604365848490716,61.95,8.16858205786775,3.8397324602086,0
rbt_1229546,7.353502000499129,90.3,8.143413068105348,3.8304031745625617,0
rbt_1638606,5.005372873996592,61.95,8.079697940268913,3.799041556134824,0
rbt_605905,7.169234922139639,90.3,7.939352073244339,3.7324511463055017,0
rbt_1607283,7.108149158497947,90.3,7.871704494460628,3.7041743878398363,0
rbt_605822,6.818450113903246,90.3,7.550886061908358,3.555850758802593,0
rbt_1107340,6.8109511668839335,90.3,7.542581580159395,3.551153512937306,0
rbt_1607287,6.799688460314456,90.3,7.5301090368930845,3.54288845904525,0
rbt_1626486,6.788648380199306,90.3,7.517883034550726,3.5328522621013048,0
rbt_606132,4.540325247692655,61.95,7.329015734774261,3.443685535275279,0
rbt_623433,6.5755919244294105,90.3,7.281940115647188,3.4267942924028154,0
rbt_626698,6.530928829172569,90.3,7.232479323557663,3.399481292154133,0
rbt_1607252,5.5075795946705295,76.65,7.185361506419477,3.3797046196340585,0
rbt_637356,4.304996088199131,61.95,6.949146227924342,3.2669370870004713,0
rbt_631391,6.189103599002705,90.3,6.853935325584391,5.191008330618687,0
rbt_605855,5.12427311168678,76.65,6.685287816942961,3.146079882093103,0
rbt_1607255,5.967460432851523,90.3,6.608483314342771,3.106837981493935,0
rbt_636933,4.962296545843917,76.65,6.473968096339096,3.0465552123478186,0
rbt_605910,3.8986517630508555,61.95,6.293223184908564,2.9563590985867667,0
rbt_627343,5.644682033450507,90.3,6.251032152215401,2.9374434498465867,0
rbt_1607304,3.801325553387746,61.95,6.136118730246563,2.8821570559119896,0
sbt_28279,13.189580404843689,216.3,6.097818032752514,2.8761242542454375,0
sbt_20214,13.189572948930731,216.3,6.097814585728494,2.876124551129454,0
rbt_1607305,5.369284394393611,90.3,5.946051378066014,2.7960351047140546,0
rbt_1607285,3.6460187135112934,61.95,5.885421652157051,2.763827986218933,0
rbt_3405846,4.422484549508115,76.65,5.769712393356967,2.7139699151151357,0
rbt_606103,4.421921439113428,76.65,5.768977741830955,2.7119805002108346,0
rbt_605825,5.13515628880552,90.3,5.686773298787952,2.674960272611969,0
rbt_606109,3.510829750496295,61.95,5.667198951567869,2.662523019140328,0
sbt_4580,9.23386775027063,163.8,5.637281898822118,2.654166813635621,0
rbt_1631852,5.069549577933779,90.3,5.614119133924452,2.639100230963203,0
rbt_605993,5.034697112823311,90.3,5.575522827046856,2.6204207378312976,0
rbt_630753,5.015058641987639,90.3,5.553774797328504,2.6127485610792367,0
rbt_621999,4.999770338613761,90.3,5.536844228808151,2.602789855614792,0
sbt_6049,9.045251440942748,163.8,5.522131526827074,2.5998778699368184,0
rbt_607384,3.3065782976258307,61.95,5.337495234262842,2.5079184771934933,0
smt_6110,17.477138806856093,327.6,5.334901955694778,3.0558439943622164,0
rbt_1607278,4.07968965809962,76.65,5.322491399999504,2.500936701248235,0
rbt_1628760,4.793149119792031,90.3,5.308027818152858,2.494070592767755,0
rbt_3433894,4.7861993243178915,90.3,5.3003314776499355,2.4925367897253374,0
rbt_1607357,4.028059837131857,76.65,5.2551335122398655,2.470129266231963,0
smt_24515,16.957138286949817,327.6,5.17617163826307,3.02266362815659,0
smt_6552,16.956742325497295,327.6,5.17605077090882,3.0225715473723986,0
smt_6549,16.956219152940236,327.6,5.175891072326079,3.0224499438832257,0
smt_23959,16.955762318334667,327.6,5.17575162342328,3.022343815704438,0
smt_22744,16.95521427612967,327.6,5.175584333372915,3.0222165678992314,0
smt_19175,16.954758475517256,327.6,5.175445200096842,3.022110794683291,0
smt_19177,16.954239482869976,327.6,5.175286777432837,3.0219904205099684,0
smt_19176,16.953694038736423,327.6,5.175120280444573,3.021863984100182,0
smt_19164,16.95345654897831,327.6,5.175047786623415,3.021808956281731,0
smt_32311,16.953047900748675,327.6,5.17492304662658,3.0217143030730713,0
smt_39119,16.952557747866273,327.6,5.174773427309606,3.021600826333053,0
smt_32312,16.952534734911765,327.6,5.174766402598219,3.0215955003547132,0
smt_32310,16.952515969993286,327.6,5.174760674601124,3.0215911570650795,0
smt_32309,16.95206241344563,327.6,5.174622226326505,3.0214862118339028,0
smt_32314,16.951855050239836,327.6,5.174558928644638,3.0214382492230065,0
smt_32313,16.95183930652088,327.6,5.174554122869622,3.0214346075723424,0
smt_6802,16.951658749506898,327.6,5.174499007785988,3.076054151520403,0
smt_24514,16.95109238189957,327.6,5.1743261239009675,3.075923949064564,0
smt_24513,16.950504200025716,327.6,5.174146581204431,3.075788813900038,0
smt_19166,16.95004267071675,327.6,5.174005699241987,3.075682835902242,0
smt_6414,16.949592155805068,327.6,5.173868179427676,3.075579436849754,0
smt_18852,16.94913620232929,327.6,5.173728999490015,3.0754748396858695,0
smt_6403,16.94863029288444,327.6,5.173574570477546,3.075358841484883,0
smt_1832,16.948190498516027,327.6,5.173440323112341,3.0752580530198195,0
smt_1831,16.947762038913698,327.6,5.173309535687942,3.075159907319858,0
smt_1829,16.946920860662146,327.6,5.173052765769886,3.0749673513683864,0
smt_1828,16.946311957812323,327.6,5.172866897989109,3.0748280733519207,0
smt_6350,16.85971269514891,327.6,5.146432446626651,3.0067126343285047,0
smt_24517,16.857486105628947,327.6,5.145752779496015,3.0064220842764917,0
smt_24520,16.856803728279065,327.6,5.145544483601667,3.0062632922413055,0
smt_19116,16.856481518574935,327.6,5.145446128991128,3.0061883534009843,0
rbt_605806,4.397357949069738,90.3,4.8697208738313815,2.2886513325375795,0
rbt_622714,4.327238175639454,90.3,4.7920688545287415,2.2535301733128486,0
rbt_1607258,3.622183074331839,76.65,4.725613926068935,2.2227356063048274,0
rbt_627328,4.2253651741641916,90.3,4.679252684567211,2.202843656736002,0
sbt_5830,7.584179413733903,163.8,4.63014616223071,2.178639916935643,0
rbt_605815,4.144680228123,90.3,4.589900584853821,2.1592393925200315,0
rbt_621168,3.5158204598548717,76.65,4.586849915009617,2.156110657303913,0
rbt_1107330,4.133856783967164,90.3,4.57791448944315,2.155692034374298,0
rbt_3422597,4.121593480311906,90.3,4.564333865240205,2.147354902194945,0
rbt_621171,2.822811219299718,61.95,4.556595995641191,2.1408249831153356,0
sbt_25907,9.828684545495115,216.3,4.544005800043973,1.7242148886171613,0
sbt_21361,9.828677599975896,216.3,4.54400258898562,1.7242150750010359,0
sbt_20771,9.828672054819144,216.3,4.544000025344033,1.724217469318642,0
rbt_606127,2.8019537687489513,61.95,4.5229277945907205,2.1250448883316646,0
rbt_1124041,4.065013819183048,90.3,4.501676433203818,2.117993687505512,0
rbt_635966,2.786430422518478,61.95,4.497869931426115,2.1135155827519663,0
rbt_605921,3.3530391110037865,76.65,4.374480249189545,2.0567901594591778,0
sbt_14007,7.108148861906931,163.8,4.339529219723401,2.042044666160314,0
rbt_627336,3.876493186652946,90.3,4.292904968607914,2.017181471386992,0
rbt_1627321,3.8570881966576374,90.3,4.271415500174571,2.0078336245824517,0
rbt_1607355,3.850820810735349,90.3,4.264474873461074,2.0046565847088194,0
rbt_605902,2.6377444815357425,61.95,4.257860341462054,2.000956650423794,0
sbt_35173,5.369283977465175,128.1,4.1914785148049765,1.9709752295847636,0
rbt_1607358,3.2065726646637716,76.65,4.183395518152343,1.966812061038092,0
sbt_21952,9.045250517937658,216.3,4.181807913979499,1.9688390356672765,0
sbt_20840,6.818450080726256,163.8,4.162667936951316,1.9602766373218377,0
sbt_6273,6.799688142056734,163.8,4.151213761939398,1.953130615295958,0
rbt_3405838,3.698923635013312,90.3,4.096260946858596,1.9286646274626709,0
rbt_1107341,2.5212644802468906,61.95,4.0698377405115265,1.9154106223164098,0
rbt_622273,2.347065640179548,57.75,4.064182926717833,1.913287809751804,0
rbt_638617,2.514498981522006,61.95,4.058916838615022,1.9102022231524496,0
smt_6536,11.613477789133215,286.65,4.051448731600633,2.3936995607589115,0
smt_6703,11.612883431556273,286.65,4.0512413855071605,2.3935639618973794,0
smt_6514,11.612300544986397,286.65,4.051038041160439,2.393431151275681,0
smt_6984,11.612211566476189,286.65,4.051007000340552,2.3934108925048965,0
smt_5854,11.611306200903641,286.65,4.050691156777828,2.393204982307717,0
smt_5855,11.610627804013467,286.65,4.050454492940334,2.3930509613782207,0
smt_5657,11.61007172682497,286.65,4.0502605012471555,2.3929248836699553,0
smt_21743,11.609485430864014,286.65,4.050055967508814,2.392792122797225,0
smt_22741,11.608884636717084,286.65,4.049846375969679,2.3926562582694912,0
smt_6098,11.608407286239654,286.65,4.049679848679454,2.3925484390874714,0
smt_19120,11.607853684309068,286.65,4.049486720498542,2.392423540864358,0
smt_22740,11.607305708143265,286.65,4.04929555490782,2.392300064192289,0
rbt_605828,3.6547970674150227,90.3,4.0473943160742225,1.9058966533134558,0
smt_22738,11.592997105754659,286.65,4.044303891768589,2.3867889652833068,0
smt_6754,11.59249790272102,286.65,4.044129741050417,2.38667522403239,0
smt_6567,11.591990400690271,286.65,4.04395269516493,2.386559719498549,0
smt_6746,11.591485866464886,286.65,4.043776684620578,2.386445018168501,0
smt_6812,11.590990001503933,286.65,4.043603698414071,2.386332411919862,0
rbt_1607292,3.581377637524972,90.3,3.966088192164975,1.8651928547528895,0
rbt_1635060,2.4242315025744943,61.95,3.913206622396278,1.8402200180336958,0
rbt_1626490,3.531868181778413,90.3,3.9112604449373345,2.9623782192271157,0
rbt_605867,3.52981671429128,90.3,3.908988609403411,1.838709607164022,0
sbt_37156,6.3912672060048825,163.8,3.901872531138512,1.833402299066366,0
sbt_4615,6.319562897764741,163.8,3.8580970071823817,1.8177382776653248,0
sbt_3373,6.31956161500629,163.8,3.858096224057564,1.8177374309511733,0
sbt_20793,6.3195604383403605,163.8,3.8580955057022956,1.817736660412373,0
sbt_4010,6.31955861565315,163.8,3.8580943929506404,1.8177354778903976,0
sbt_28804,6.3195569618807905,163.8,3.858093383321606,1.817734416016319,0
rbt_605812,3.4335632042552047,90.3,3.8023955750334495,1.7899561448178876,0
rbt_632613,3.4290785688689964,90.3,3.797429201405312,1.7863234005833188,0
rbt_622713,3.41301145527727,90.3,3.779636163097752,1.7761622643106951,0
rbt_606120,2.3305279822609037,61.95,3.761949931010337,1.767109442572946,0
sbt_4118,10.767788428144764,286.65,3.75642366235645,1.3780283104147426,0
sbt_26269,8.072705694303925,216.3,3.7321801638020924,1.7552241131273905,0
rbt_1132019,3.332249885262453,90.3,3.690199208485552,1.7355628797416198,0
rbt_605863,3.3198296863010985,90.3,3.6764448353279056,1.7297787771740099,0
rbt_634166,2.7791793814210206,76.65,3.625804802897613,1.7039175372508908,0
rbt_1138614,2.237344993356066,61.95,3.611533484029162,1.6985658015226663,0
smt_7052,5.888335890910023,163.8,3.5948326562332245,1.9441739410911094,0
rbt_605803,3.212857013426967,90.3,3.557981188734183,1.6727236781003911,0
rbt_605834,3.1960475191230513,90.3,3.5393660233920836,1.6675819997048,0
smt_29484,5.768947238240757,163.8,3.5219458108917925,1.7450368285962294,0
smt_22951,5.768933534179862,163.8,3.5219374445542497,1.7450284056570167,0
rbt_605904,2.1815317531662526,61.95,3.5214394724233293,1.653559720920641,0
smt_19381,5.767575904503314,163.8,3.521108610807884,1.7441950853446342,0
smt_18804,5.766869106850134,163.8,3.520677110409117,1.7437621774022798,0
smt_19380,5.766059130589762,163.8,3.5201826194076693,1.7432668590229239,0
smt_5349,5.765410171485496,163.8,3.5197864294783248,1.7428706140441896,0
smt_18803,5.764751027365952,163.8,3.519384021590935,1.742468705910462,0
smt_13454,5.764077978502079,163.8,3.5189731248486433,1.7420588994676407,0
smt_19377,5.763277916190032,163.8,3.5184846863187005,1.741572522361697,0
smt_29411,5.762272077467673,163.8,3.517870621164635,1.740962233702282,0
smt_8954,5.761654082611282,163.8,3.5174933349275226,1.7405879253275858,0
smt_5584,5.760933683181685,163.8,3.5170535306359487,1.7401522267242717,0
rbt_605864,3.1740247854289168,90.3,3.5149776139855113,1.6538358337842087,0
rbt_605810,2.6919218897885777,76.65,3.511965935797231,1.6507633466936762,0
rbt_609682,2.6760063927965687,76.65,3.4912020780124835,1.6433333800506613,0
rbt_605835,3.1235162726297157,90.3,3.4590434912842922,1.6297117067530176,0
rbt_622703,2.1394276862645523,61.95,3.4534748769403585,2.616291410486838,0
sbt_14006,5.652164930823755,163.8,3.4506501409180426,1.622935940035476,0
sbt_27416,7.353501868478633,216.3,3.399677239241161,1.5991002915710997,0
sbt_15213,7.353501817657797,216.3,3.3996772157456294,1.599100280595593,0
rbt_606128,2.589157048194919,76.65,3.377895692361277,1.5875438434887583,0
rbt_607385,3.0282423059479546,90.3,3.353535222533726,1.5779356979058086,0
rbt_1607257,3.0262944329577817,90.3,3.351378109587798,1.575560648560816,0
rbt_3405845,3.017592046306179,90.3,3.3417409150677506,1.5737673954781763,0
rbt_633056,3.002940180911483,90.3,3.3255151505110554,1.563672419120322,0
rbt_606141,2.998694528890413,90.3,3.3208134317723292,1.563482008427475,0
rbt_623015,2.9928032734622225,90.3,3.3142893393823063,2.5105167606572096,0
smt_25186,5.413190499830487,163.8,3.3047561049026175,1.80284470967515,0
sbt_34389,4.225363892515182,128.1,3.298488596811228,2.538860237484996,0
rbt_1606000,2.935111197234387,90.3,3.250399996937306,1.5284441865858114,0
rbt_605982,2.9313960303522646,90.3,3.2462857478984106,1.5276237719690104,0
sbt_37537,6.999345313869242,216.3,3.235943279643662,1.2726712956884978,0
sbt_37545,6.999336392697283,216.3,3.235939155199853,1.2726720230822028,0
sbt_37546,6.9993191440009594,216.3,3.235931180767896,1.2726708305899221,0
sbt_37539,6.991507895298774,216.3,3.2323198776231044,1.798429722948322,0
sbt_37538,6.991502189566025,216.3,3.2323172397438857,1.7984303197848206,0
sbt_3952,5.28916921162909,163.8,3.229041032740592,1.5205458737423523,0
sbt_4120,5.2891676970508215,163.8,3.229040108089634,1.520544894907909,0
sbt_20855,5.289166221672484,163.8,3.2290392073702585,1.520543948384758,0
sbt_20854,5.28916482140381,163.8,3.2290383525053783,1.5205430561762754,0
rbt_1629639,2.9152246235002166,90.3,3.228377213178535,1.5168292383096766,0
rbt_635963,1.9936015870075945,61.95,3.2180816578007985,1.511608580678203,0
rbt_626481,2.8788720014855924,90.3,3.188119602974078,1.4989126791368272,0
rbt_1607306,2.422929415511476,76.65,3.161029896296772,1.4866557922118717,0
rbt_605820,2.4155330270927284,76.65,3.1513803354112566,1.4828901328173816,0
rbt_3405847,2.8419267986911056,90.3,3.147205757133007,1.482161156027974,0
rbt_605901,2.8393298136834155,90.3,3.144329804743539,1.4775350630806823,0
rbt_1607289,2.3948725998779574,76.65,3.1244260924696112,1.4683962862903048,0
sbt_34000,6.736698784901361,216.3,3.114516312945613,1.4639519416418347,0
sbt_20828,5.060435300104968,163.8,3.0893988401129224,1.4522057097054197,0
rbt_1609690,2.7465327053014987,90.3,3.041564457698227,1.4291696100389328,0
smt_6512,8.692414225642562,286.65,3.0324138237022717,1.8079936638630285,0
smt_6425,8.692018877571943,286.65,3.032275903566002,1.8079156309067563,0
smt_6930,8.691413262076285,286.65,3.032064630063243,1.8077951921341284,0
rbt_1625170,2.7295923207160624,90.3,3.022804341878253,1.4205369767602773,0
rbt_605821,3.870609546215678,128.1,3.021553119606306,1.4200857480950753,0
sbt_34382,3.870566347575246,128.1,3.0215193970142438,1.4200105581921891,0
sbt_35105,3.850820434740836,128.1,3.0061049451528774,1.413118273302314,0
rbt_605988,2.690636890739281,90.3,2.9796643308297686,1.402643462873053,0
smt_22686,8.50358243716268,286.65,2.966538439617192,1.8548974041371296,0
smt_6239,8.503117337877542,286.65,2.9663761862471807,1.8548020043552953,0
smt_23961,8.5026633669117,286.65,2.9662178150747254,1.8547090772490085,0
smt_29407,8.502201581461588,286.65,2.966056717760889,1.8546145903163298,0
smt_6278,8.50178799713757,286.65,2.9659124357709996,1.8545303435910603,0
smt_6630,8.501305797043685,286.65,2.965744216655742,1.8544321156981296,0
smt_19070,8.5008213145065,286.65,2.9655752012930403,1.854333592709447,0
smt_6639,8.500337132972062,286.65,2.965406290937402,1.8542352206739767,0
smt_19117,8.499885188962962,286.65,2.9652486268839917,1.8541435515723486,0
smt_21514,8.49554930616945,286.65,2.963736021688278,1.848751315494041,0
smt_5615,8.49508115311687,286.65,2.9635727029886167,1.8486533943215084,0
smt_18742,8.494716571493699,286.65,2.963445515958032,1.8485774077414423,0
smt_6270,8.49414399350723,286.65,2.9632457678378614,1.8484579995407884,0
smt_5967,8.493698665189752,286.65,2.9630904117180368,1.8483654233646254,0
smt_5772,8.493173348330155,286.65,2.9629071509960423,1.8482563311429034,0
smt_6158,8.492653813572517,286.65,2.9627259074036343,1.848148570041043,0
smt_6263,8.492203887027467,286.65,2.9625689471576724,1.8480555929132627,0
smt_6384,8.491645920579598,286.65,2.9623742963822077,1.847940337558283,0
smt_22684,8.491099984582705,286.65,2.9621838425196954,1.8478276618109633,0
smt_22685,8.490654554983815,286.65,2.9620284510670905,1.847736032975001,0
smt_29447,8.490187564256026,286.65,2.96186553785314,1.847640149676348,0
smt_19065,8.489687296136394,286.65,2.9616910155717404,1.8475376851419518,0
smt_24385,8.489122042207528,286.65,2.9614938225039347,1.8474219967065844,0
smt_29448,8.487674077716346,286.65,2.960988689243449,1.8350711627333987,0
smt_6824,8.487217693798149,286.65,2.960829476294488,1.8349732467370732,0
smt_6855,8.486728337852147,286.65,2.96065876080661,1.8348684240375668,0
smt_19062,8.486156872692558,286.65,2.9604594009044334,1.8347462327527364,0
smt_7054,8.485702652773437,286.65,2.9603009428827622,1.8346492800767462,0
smt_6446,8.485238568970674,286.65,2.960139043771385,1.8345503769980331,0
smt_39006,8.484763093837941,286.65,2.959973170709207,1.8344492090503888,0
smt_39008,8.484333455576646,286.65,2.959823288183027,1.8343579354366515,0
smt_39007,8.484315346145268,286.65,2.95981697057222,1.8343540913595013,0
smt_6122,8.483903032850847,286.65,2.959673131990528,1.8342666311739937,0
smt_18741,8.4833827269736,286.65,2.959491619387267,1.8341564564082118,0
smt_5938,8.48290068449677,286.65,2.9593234552578997,1.8340546105031053,0
smt_5946,8.482344058400507,286.65,2.959129272074135,1.8339372000937166,0
rbt_605804,1.8248462516370978,61.95,2.945675950988051,1.3844383077280957,0
sbt_6048,4.778600051895675,163.8,2.9173382490205584,1.3736194457061537,0
rbt_605829,2.632356105769504,90.3,2.9151230407192736,1.370809697890879,0
sbt_15045,6.27348807757526,216.3,2.9003643446949887,1.3646020048559162,0
rbt_1107342,1.7842482670930602,61.95,2.8801424811833094,1.3545835576913416,0
rbt_1607316,2.599437116984801,90.3,2.8786679036376532,2.1818379575192828,0
rbt_3405987,1.755402287038533,61.95,2.833579155832983,1.3347472230990698,0
sbt_22669,6.122642174159789,216.3,2.830625138307808,1.3310138638988114,0
rbt_1132012,2.5483914665199157,90.3,2.8221389440973597,1.3265886472076942,0
rbt_605823,2.5394194763651385,90.3,2.8122031853434537,1.3229773881924614,0
rbt_1607268,2.1530666685527415,76.65,2.808958471693074,1.3200746716702543,0
sbt_35588,6.072730001144359,216.3,2.807549700020508,1.319619685558991,0
sbt_21281,4.540323836318115,163.8,2.7718704739426827,1.3024186595076148,0
rbt_1121173,2.4730551785617507,90.3,2.73871005377824,1.2886696103706443,0
rbt_605989,2.471303917813797,90.3,2.73677067310498,1.2863286322800997,0
rbt_605807,2.4607987779805085,90.3,2.7251370741755356,1.2823486610186805,0
smt_29426,5.889072847000383,216.3,2.7226411682849667,1.4726189252913275,0
rbt_606130,2.072683383617157,76.65,2.704087910785593,1.2706563974484342,0
sbt_3491,4.421918137574908,163.8,2.6995837225732036,1.269065738116384,0
rbt_637399,1.66314795329058,61.95,2.684661748653075,1.261640193680118,0
sbt_21191,4.384001870343555,163.8,2.6764358182805585,1.2584279893520585,0
sbt_26310,4.3272377623265506,163.8,2.6417812956816547,1.2423304782136035,0
rbt_637705,2.373227336209119,90.3,2.628158733343432,1.9910006550620618,0
rbt_1105833,2.3732176495411514,90.3,2.6281480061363807,1.2356678806629837,0
rbt_1607276,2.3530163308223377,90.3,2.6057766675773397,1.2244229908795918,0
rbt_622709,2.325736978251545,90.3,2.575566974807913,1.2112598766732041,0
rbt_1607319,2.324461852158472,90.3,2.5741548750370677,1.828721173600311,0
...